# generated using pymatgen
data_Si6N13
_symmetry_space_group_name_H-M   'P 1'
_cell_length_a   12.00000000
_cell_length_b   12.00000000
_cell_length_c   12.00000000
_cell_angle_alpha   90.00000000
_cell_angle_beta   90.00000000
_cell_angle_gamma   90.00000000
_symmetry_Int_Tables_number   1
_chemical_formula_structural   Si6N13
_chemical_formula_sum   'Si6 N13'
_cell_volume   1728.00000000
_cell_formula_units_Z   1
loop_
 _symmetry_equiv_pos_site_id
 _symmetry_equiv_pos_as_xyz
  1  'x, y, z'
loop_
 _atom_site_type_symbol
 _atom_site_label
 _atom_site_symmetry_multiplicity
 _atom_site_fract_x
 _atom_site_fract_y
 _atom_site_fract_z
 _atom_site_occupancy
  N  N0  1  0.50000000  0.50000000  0.50000000  1
  Si  Si1  1  0.62384389  0.56205756  0.54559508  1
  Si  Si2  1  0.49954836  0.37861697  0.41917106  1
  Si  Si3  1  0.39736325  0.60215121  0.48273185  1
  Si  Si4  1  0.51523659  0.40563529  0.61013859  1
  N  N5  1  0.73566666  0.51058105  0.46740816  1
  N  N6  1  0.69397307  0.47064984  0.63500363  1
  N  N7  1  0.66179615  0.66838069  0.45327835  1
  N  N8  1  0.54296383  0.26576383  0.50069791  1
  N  N9  1  0.39988521  0.28582664  0.47136849  1
  N  N10  1  0.57409712  0.40194190  0.29602159  1
  N  N11  1  0.37593476  0.37201049  0.34207767  1
  N  N12  1  0.26757043  0.54755572  0.52068600  1
  N  N13  1  0.29363474  0.55219651  0.39322048  1
  N  N14  1  0.40569567  0.65713175  0.34791690  1
  N  N15  1  0.38443710  0.35318659  0.64766178  1
  N  N16  1  0.63147324  0.32097040  0.58588453  1
  Si  Si17  1  0.76047642  0.36699842  0.46141929  1
  Si  Si18  1  0.77547485  0.57764890  0.34418246  1
